22
a49d311aff2713cbe7d857cf
O 1.928443 -1.565235 -0.983191
C 1.360832 -2.685709 -0.521925
O 1.935457 -3.735882 -0.511664
C -0.042404 -2.560774 0.003075
C -1.021272 -1.688218 -0.555504
C -0.939070 -0.664086 -1.455165
C -0.597411 0.529293 -0.738165
C -0.269185 0.171532 0.562007
C -0.569120 -1.230091 0.778149
C 0.171037 1.195853 1.565951
N -0.206354 2.528855 1.090431
C -0.321085 2.832592 -0.237700
C -0.504149 1.898171 -1.188421
H 1.309913 -0.830485 -0.868006
H -0.318259 -3.431509 0.581345
H -0.972513 -0.747064 -2.529442
H -0.967080 -1.553664 1.727926
H 1.254733 1.155195 1.732794
H -0.307140 1.031609 2.534712
H 0.003515 3.288737 1.708415
H -0.303212 3.887120 -0.473734
H -0.625683 2.173759 -2.221885
