36
2100cb04033933fc8faa29c1
Si 3.065708 0.746566 0.151857
C 2.675602 -0.746797 -0.915662
Si 2.514801 -2.443970 -0.143056
C 0.695983 -2.778497 -0.419477
C 0.253433 -1.413334 -0.933630
C 1.204815 -0.430063 -1.151225
C 0.823636 0.904258 -1.124970
C 1.842274 1.925912 -0.619470
Si 0.676436 2.959379 0.414138
C -0.840754 2.688975 -0.657744
C -0.519536 1.251652 -1.051507
C -1.473277 0.267376 -0.855913
C -1.069774 -1.054134 -0.714658
C -1.904397 -1.956973 0.194041
Si -0.497902 -2.862977 1.026420
Si -2.877739 -0.632033 1.079031
C -2.836613 0.647153 -0.293570
Si -2.526226 2.447430 0.113533
H 4.471417 1.207376 0.124933
H 2.730928 0.456145 1.567125
H 3.237299 -0.707145 -1.843924
H 2.843153 -2.426245 1.293908
H 3.399128 -3.447617 -0.775498
H 0.462361 -3.561426 -1.134502
H 2.262668 2.493977 -1.445227
H 1.077270 4.365283 0.637861
H 0.468853 2.351635 1.753319
H -0.803736 3.349854 -1.518199
H -2.533348 -2.621146 -0.392855
H -0.812862 -4.215280 1.536497
H 0.032383 -2.084956 2.173689
H -2.145257 -0.120714 2.264902
H -4.221599 -1.040845 1.544330
H -3.626235 0.452390 -1.012967
H -2.490455 2.677028 1.569661
H -3.558442 3.351762 -0.441192
36
218ef4420d58cba4e1ad8e92
C -2.411395 -0.390155 -2.408391
Si -0.545926 -0.185703 -2.686560
Si 0.065763 0.072074 -0.390497
C -0.552263 1.707147 0.381437
C -0.108039 2.902137 -0.469337
C -2.065063 1.747942 0.620685
C -0.679275 -1.330309 0.685245
C -0.257070 -2.739783 0.273802
C -0.419690 -1.116213 2.180250
C 1.980604 0.150739 -0.382780
C 2.609284 0.367605 0.996766
C 2.609641 -1.051326 -1.089252
H -2.939528 -0.519687 -3.360241
H -2.842939 0.484130 -1.920994
H -2.621964 -1.256719 -1.780895
H -0.054439 1.780546 1.352833
H -0.566703 2.871735 -1.459424
H 0.972947 2.913253 -0.603290
H -0.405278 3.840725 0.000461
H -2.613584 1.765966 -0.319604
H -2.337429 2.653991 1.164660
H -2.412858 0.890882 1.196376
H -1.759326 -1.245101 0.531358
H 0.791126 -2.924064 0.505921
H -0.405964 -2.923764 -0.789141
H -0.845244 -3.478981 0.819609
H 0.641968 -1.190914 2.412071
H -0.932943 -1.879515 2.768336
H -0.769870 -0.142140 2.517444
H 2.207764 1.041078 -0.977617
H 2.498810 -0.514624 1.626528
H 2.158834 1.213968 1.512308
H 3.678211 0.562304 0.898147
H 2.449309 -1.968481 -0.526283
H 3.686480 -0.911644 -1.191880
H 2.196064 -1.197097 -2.088048
36
2144d266e32159c22efd9887
C -2.520928 3.876528 -0.737659
O -2.946203 2.535672 -0.765245
C -2.550853 1.827484 0.400505
C -2.968713 0.378358 0.255446
C -2.285284 -0.315715 -0.916852
N -0.826362 -0.263614 -0.813028
C -0.156940 -1.044083 0.067543
O -0.705735 -1.775777 0.873123
C 1.374773 -0.975828 -0.010165
C 1.992335 -0.920491 1.382928
C 3.512897 -0.834705 1.309811
C 1.432797 0.247499 2.189145
N 1.819597 -2.176970 -0.716561
C 1.799014 -2.261313 -2.081638
O 1.704904 -1.322660 -2.882393
C 1.811772 -3.424362 -2.914373
H -2.879263 4.357607 -1.643818
H -1.429852 3.949999 -0.708954
H -2.926965 4.408507 0.126872
H -3.020313 2.280898 1.279373
H -1.465362 1.899183 0.531177
H -4.047257 0.347691 0.103584
H -2.739493 -0.164408 1.170935
H -2.562167 0.168592 -1.849279
H -2.601188 -1.357356 -0.960307
H -0.309307 0.049168 -1.616838
H 1.694281 -0.118353 -0.597204
H 1.703238 -1.850002 1.878024
H 3.819691 0.097489 0.831833
H 3.935256 -1.658968 0.738560
H 3.941732 -0.855913 2.310356
H 1.648963 1.195947 1.695274
H 1.892881 0.272043 3.174706
H 0.356774 0.169647 2.323019
H 1.656837 -3.042088 -0.222482
H 2.844459 -3.699701 -3.205413
36
21da48e25953c9fe77b5024b
O -0.691028 5.415777 -1.014183
C -0.654877 4.365708 -0.464323
O 0.154934 4.155951 0.630805
C 0.042443 2.865448 1.104297
O 0.713551 2.493696 2.010159
C -1.034696 2.124198 0.326621
C -1.414466 3.100132 -0.777547
C -0.633322 0.733036 -0.146544
C 0.633867 0.720737 -1.005146
C 0.786419 -0.652357 -1.635447
C 2.089587 -0.999202 -2.332987
O 2.112149 -2.423373 -2.359906
C 1.541696 -2.892867 -1.142398
C 0.727578 -1.742087 -0.591137
C 0.100860 -1.628316 0.576247
C -0.477496 -0.230390 1.024847
C -1.689963 -0.805737 1.691905
C -1.369207 -1.439263 2.853965
C -0.897210 -2.799573 2.603794
C -0.136372 -2.803954 1.481454
H -1.866220 2.034995 1.025330
H -2.471053 3.345522 -0.804169
H -1.134709 2.750884 -1.767197
H -1.456554 0.352102 -0.759595
H 1.501755 0.931163 -0.376225
H 0.605179 1.493068 -1.771451
H -0.034313 -0.817315 -2.341078
H 2.936512 -0.614240 -1.756495
H 2.161452 -0.642216 -3.354828
H 2.328768 -3.196294 -0.445863
H 0.916691 -3.757820 -1.364277
H 0.220348 0.186209 1.753260
H -2.281324 -1.400229 0.995862
H -0.813837 -0.888295 3.611462
H -0.904137 -3.622398 3.302508
H 0.386989 -3.712701 1.218303
36
2111eb1010a628e1df9afdba
C 4.212005 -0.918802 0.294283
C 3.249982 -1.866028 0.650497
C 1.919327 -1.487427 0.697437
C 1.550992 -0.188829 0.397094
C 2.492347 0.770245 -0.076338
C 3.859081 0.370224 -0.015108
N 0.194022 0.201066 0.321523
C -0.944181 -0.299459 1.028971
C -0.917918 -0.973087 2.316917
C -2.071222 -1.334528 2.873397
C -3.419244 -1.099709 2.241770
C -3.444747 -0.264572 0.935244
C -2.085590 0.009548 0.375209
C -1.693154 0.723776 -0.849377
C -0.277159 0.858308 -0.739945
C 0.305463 1.648466 -1.830692
C 1.647582 1.124878 -2.194963
C -0.892279 1.568211 -2.867897
C -2.105150 1.200793 -2.059686
H 5.258335 -1.195236 0.270875
H 3.531841 -2.877662 0.884678
H 1.152406 -2.218527 0.930112
H 2.266233 1.820647 0.055701
H 4.627888 1.095819 -0.231830
H 0.026664 -1.150089 2.808038
H -2.069685 -1.843364 3.828929
H -4.063238 -0.621474 2.982030
H -3.879776 -2.072674 2.059700
H -3.942872 0.692567 1.114849
H -4.055693 -0.774527 0.187159
H 0.349244 2.703516 -1.531257
H -0.624246 0.747288 -3.542586
H 1.622215 0.137000 -2.651250
H 2.303432 1.806594 -2.720425
H -0.981589 2.469697 -3.473250
H -3.101318 1.237354 -2.469807
36
2186c48c411011a3c63bad30
O -5.010432 -0.188321 -1.038047
C -3.787674 -0.642816 -0.681077
O -3.642421 -1.753706 -0.242283
N -2.776561 0.267147 -0.846778
C -1.408040 -0.104155 -0.730545
C -0.755865 0.849383 0.435887
C 0.649331 0.613743 0.452980
O -0.664660 1.603329 -2.150784
C -0.679816 0.281053 -2.033267
C 0.717907 -0.399495 -2.077406
N 1.816570 0.500431 -1.712752
C 1.457556 1.346505 -0.551521
C 1.303851 -0.316505 1.427566
C 0.463799 -1.580230 1.641470
C 2.719892 -0.702742 0.984488
C 1.376008 0.478185 2.761219
H -4.943058 0.720377 -1.340428
H -2.888088 1.064453 -1.462371
H -1.321537 -1.144793 -0.454343
H -1.293919 0.614406 1.343328
H -0.977517 1.834116 0.045146
H -1.302478 -0.233693 -2.806541
H 0.948923 -0.759817 -3.080382
H 0.717390 -1.264385 -1.409235
H 1.873569 1.144847 -2.488481
H 0.836325 2.174801 -0.893717
H 2.376649 1.702965 -0.094538
H 0.467610 -2.207672 0.751460
H -0.570680 -1.341731 1.882462
H 0.876085 -2.162577 2.462319
H 2.729258 -1.034096 -0.049473
H 3.096781 -1.503905 1.616846
H 3.400135 0.141971 1.065493
H 0.379784 0.676766 3.148731
H 1.892089 1.424979 2.621642
H 1.923191 -0.098823 3.502929
36
210e3fac5ae68f0d37c3677e
C -1.787608 -0.268572 2.576578
C -0.491794 0.261160 1.965575
C -0.794069 1.272238 0.855592
S -2.069793 0.713242 -0.320187
C -2.369045 2.248984 -1.215373
C 1.003253 2.245603 -2.238620
S 1.164300 -0.309179 -1.045501
C 0.303046 -1.395604 0.151441
C 0.502589 -0.850362 1.559100
C 0.500506 -2.008965 2.546975
C 0.366749 -0.829624 -2.568919
C 2.657000 -1.357148 -1.178835
H -2.496389 0.546025 2.702825
H -1.620813 -0.721981 3.551156
H -2.258326 -1.011812 1.934855
H 0.017975 0.831115 2.748058
H 0.091137 1.551565 0.281321
H -1.189274 2.173251 1.321591
H -2.652714 3.033200 -0.516805
H -3.202872 2.052096 -1.884687
H -1.486397 2.546833 -1.783222
H 0.846273 3.044903 -1.508325
H 0.433992 2.448024 -3.148347
H 2.065718 2.217388 -2.493791
H 0.714247 -2.394802 0.040768
H -0.740560 -1.422990 -0.147673
H 1.502116 -0.403037 1.572989
H -0.426000 -2.581136 2.486560
H 0.600936 -1.658568 3.573030
H 1.323591 -2.690736 2.335767
H -0.614294 -0.368350 -2.547605
H 0.300301 -1.909497 -2.672494
H 0.963135 -0.379559 -3.352435
H 3.130024 -1.345833 -0.203163
H 3.313009 -0.906946 -1.914398
H 2.400043 -2.370923 -1.463800
36
21fee233cd9b8153b7db0b4d
C -2.627654 1.300146 -1.334164
S -0.731146 1.313485 -1.022909
C -0.311595 1.339685 -2.821385
C 0.029647 0.048687 -0.214912
C -0.169112 -1.338986 -0.356269
C 0.407668 -2.191366 0.545695
C 1.195379 -1.659290 1.613456
C 1.369059 -0.317510 1.773630
C 0.783467 0.598818 0.871312
C 0.797560 1.997612 0.877779
C 0.072114 2.560601 -0.228713
C -0.122509 3.955453 -0.365709
C 0.465483 4.779589 0.543024
C 1.229661 4.247674 1.620196
C 1.387472 2.903986 1.789837
C 0.206430 -3.639073 0.423982
C -0.493562 -4.391756 -0.460378
C -0.329140 -5.755177 -0.059904
C 0.459637 -5.729982 1.036615
O 0.796754 -4.451313 1.346547
H -2.959192 0.418020 -1.875087
H -2.951317 2.214776 -1.826534
H -3.010084 1.284359 -0.314284
H -0.726819 0.452173 -3.286130
H 0.772132 1.330259 -2.840840
H -0.701591 2.246026 -3.268900
H -0.770951 -1.734967 -1.159880
H 1.655697 -2.341110 2.309612
H 1.958326 0.038587 2.606086
H -0.725379 4.358634 -1.172108
H 0.350724 5.848215 0.450471
H 1.686264 4.932800 2.316602
H 1.955758 2.516834 2.623303
H -1.061018 -4.023529 -1.297763
H -0.746578 -6.627703 -0.530293
H 0.858418 -6.484653 1.688011
36
21b1e5a32f7725b34bff3620
C -1.512259 -4.427968 -3.456075
O -2.136328 -3.255044 -2.992028
C -1.663293 -2.104874 -3.658239
C -2.341209 -0.890706 -3.088021
O -1.832180 -0.629161 -1.796496
C -2.391527 0.535388 -1.236727
C -1.951613 0.660353 0.198256
O -0.580949 1.058432 0.188536
C 0.071656 1.156704 1.365776
C -0.523359 1.080376 2.619309
C 0.274467 1.188329 3.748266
C 1.649032 1.353326 3.647982
C 2.227433 1.466989 2.381771
C 1.441310 1.365593 1.251352
S 3.980487 1.801635 2.202283
O 4.195811 3.207474 2.326128
O 4.660792 0.862220 3.044070
N 4.278943 1.392872 0.644813
I 2.670147 1.359143 5.489076
O 2.230330 3.002599 6.157678
H -1.906039 -5.258590 -2.877827
H -0.427763 -4.385617 -3.319641
H -1.723635 -4.603753 -4.515002
H -1.887995 -2.170818 -4.728996
H -0.578813 -2.008176 -3.542317
H -3.418913 -1.072258 -3.041864
H -2.166912 -0.031045 -3.744476
H -3.484983 0.494795 -1.272108
H -2.064130 1.422038 -1.787659
H -2.062394 -0.299695 0.703737
H -2.550380 1.410873 0.716812
H -1.588579 0.949543 2.731854
H -0.183784 1.150953 4.727260
H 1.860894 1.434996 0.262444
H 4.548919 2.190310 0.089997
H 4.886849 0.592762 0.560087
36
21f6db1a42745e5cef04e599
C -3.440030 1.944994 0.391180
O -2.185167 2.259583 -0.164609
C -1.695983 1.403913 -1.209640
C -2.654784 1.365867 -2.390558
C -1.431020 -0.008735 -0.695315
C -0.432664 -0.030657 0.450279
N 0.809402 0.621258 0.064542
C 0.652221 1.973612 -0.465774
C -0.356312 2.011047 -1.608392
C 2.041933 0.060221 0.066520
O 2.983972 0.540063 -0.540422
C 2.268973 -1.240245 0.837519
C 3.229288 -2.090185 0.302409
C 3.489381 -3.322279 0.885901
C 2.799460 -3.698379 2.028618
C 1.885424 -2.831097 2.611244
C 1.641505 -1.596033 2.028534
B 3.074919 -5.108156 2.612509
H -3.595419 2.643329 1.207790
H -3.469849 0.930960 0.795801
H -4.252047 2.060728 -0.327652
H -3.586681 0.874022 -2.122959
H -2.202959 0.812104 -3.211107
H -2.877885 2.374027 -2.730309
H -1.032770 -0.611937 -1.512264
H -2.362073 -0.471281 -0.373933
H -0.237131 -1.062035 0.712769
H -0.858684 0.484172 1.313340
H 1.623090 2.308620 -0.809885
H 0.309587 2.630170 0.332978
H 0.053334 1.467952 -2.461228
H -0.516017 3.045199 -1.911785
H 3.776203 -1.773840 -0.571239
H 4.233023 -3.964399 0.436811
H 1.346528 -3.093020 3.510609
H 0.969215 -0.909563 2.517716
