24
894b83f876d0e615b55e2bfb
C -3.948132 1.061743 -1.267402
N -2.514775 1.129775 -1.012968
C -1.776592 0.157334 -1.800394
C -0.280265 0.312549 -1.606070
O 0.036499 -0.034997 -0.239254
B 1.158158 -0.246256 0.414658
C 2.147089 0.290482 1.500052
C 3.608858 0.164002 1.149637
C 3.572156 -1.111747 0.774896
C 2.101558 -1.329272 1.026798
C 1.673518 -1.551184 2.461941
C 1.713278 -0.274088 2.836354
H -4.473478 1.756024 -0.616374
H -4.373355 0.062106 -1.117094
H -4.138451 1.354760 -2.298996
H -2.353188 0.945490 -0.031611
H -1.991255 0.326497 -2.856629
H -2.061680 -0.878390 -1.570186
H 0.015668 1.343332 -1.791375
H 0.255427 -0.348806 -2.286583
H 4.382909 0.912914 1.220882
H 4.301304 -1.819670 0.411552
H 1.425479 -2.482143 2.945471
H 1.519268 0.259546 3.752690
34
e35b3f96a6f628894e98e52c
C -2.104213 -1.683405 -2.906723
C -0.933091 -2.531512 -2.430102
C 0.269877 -1.697274 -1.979091
C -0.073278 -0.767177 -0.836887
C -0.575590 -1.227787 0.374393
C -0.803916 -0.370189 1.439254
C -0.543892 0.989774 1.339257
C -0.057369 1.423361 0.118408
C 0.162630 0.602761 -0.956082
Cl 0.310522 3.194224 -0.207901
O 0.798583 3.213918 -1.579941
O -0.983881 3.832343 -0.046975
C -0.788295 1.885476 2.531100
O 0.373303 2.644559 2.889405
C 1.369787 1.939339 3.482596
O 1.292922 0.776441 3.790071
N 2.446995 2.738928 3.664102
C 1.452495 -2.593287 -1.604985
H -2.942694 -2.303994 -3.218342
H -1.817809 -1.061537 -3.754757
H -2.449602 -1.021750 -2.114142
H -0.608725 -3.195166 -3.233318
H -1.250174 -3.177823 -1.607940
H 0.574361 -1.071846 -2.819544
H -0.781398 -2.282487 0.503369
H -1.165541 -0.767741 2.378175
H 0.530525 1.038046 -1.872102
H -1.089567 1.266060 3.371290
H -1.554021 2.627198 2.334495
H 2.417718 3.700883 3.388933
H 3.266959 2.351714 4.089226
H 1.191426 -3.260118 -0.783552
H 2.310200 -2.001518 -1.291924
H 1.754761 -3.210397 -2.449759
44
47c0faa7a2195e86ce042ca8
C -3.251350 2.438660 3.091167
C -1.983738 3.122685 2.607094
I -0.441355 1.575227 1.911035
C 0.286397 -0.347744 1.008956
C 0.334493 -0.306430 -0.507639
C -0.534985 0.850841 -0.963846
C -1.051270 1.744297 -0.126859
C -1.958662 2.885759 -0.473882
C -2.099531 3.126844 -1.994698
C -1.524861 2.053851 -2.863908
C -0.806661 1.035996 -2.406699
C 1.766664 -0.151500 -1.074492
C 2.671364 -1.283347 -0.624552
N 2.054350 -2.610397 -0.830507
C 0.612663 -2.807968 -0.580232
C -0.179773 -1.635617 -1.113790
S 2.965394 -3.827565 -0.201408
O 2.302557 -5.064984 -0.489194
O 4.323429 -3.609302 -0.602870
C 2.894932 -3.594688 1.559849
H -3.836015 3.097108 3.732481
H -3.013666 1.548516 3.676051
H -3.886809 2.118037 2.268515
H -1.410887 3.524394 3.443473
H -2.174543 3.943068 1.926368
H -0.465064 -1.052027 1.365961
H 1.224473 -0.588054 1.505261
H -1.571985 3.792296 -0.013336
H -2.936416 2.701022 -0.026935
H -3.150762 3.258182 -2.244916
H -1.617173 4.068185 -2.258155
H -1.698445 2.159692 -3.925846
H -0.397284 0.325761 -3.107040
H 2.185234 0.801156 -0.750523
H 1.733078 -0.137809 -2.163433
H 2.937412 -1.137607 0.423193
H 3.596258 -1.295544 -1.188203
H 0.415106 -2.946179 0.484694
H 0.344734 -3.730924 -1.079789
H -1.237040 -1.762647 -0.890067
H -0.081208 -1.612594 -2.196900
H 1.860726 -3.655539 1.881937
H 3.319144 -2.625585 1.797890
H 3.481080 -4.387516 2.015791
34
f26c9b85fcb5c2450f53354c
C -0.941774 -2.812179 3.638077
C 0.024964 -1.992409 3.256691
C 0.779655 -2.236028 1.996546
O 0.581946 -3.155815 1.244378
O 1.704199 -1.278933 1.815131
C 2.489141 -1.302570 0.598882
C 2.119588 -0.074288 -0.214416
C 0.643501 -0.034806 -0.596799
C 0.250169 1.161749 -1.455235
C -1.247181 1.188678 -1.757730
C -1.691039 2.401791 -2.588307
Si -3.476840 2.460983 -3.243286
C -4.427617 2.467669 -1.556009
Br -3.995520 4.064796 -0.534851
Br -6.307364 2.382355 -2.005847
C 3.943962 -1.350046 1.006949
H -1.495455 -2.636042 4.548193
H -1.196814 -3.679748 3.045593
H 0.305328 -1.119503 3.827040
H 2.224489 -2.201153 0.045811
H 2.738274 -0.077934 -1.114125
H 2.380729 0.821613 0.353861
H 0.043447 -0.021761 0.315989
H 0.386866 -0.964901 -1.112606
H 0.806521 1.141847 -2.393959
H 0.522767 2.086583 -0.940987
H -1.774495 1.179462 -0.800704
H -1.518695 0.262880 -2.269415
H -1.078013 2.455945 -3.493262
H -1.474431 3.324601 -2.038873
H -4.241204 1.629717 -0.896496
H 4.204778 -0.476076 1.601966
H 4.578110 -1.372928 0.122750
H 4.138002 -2.243547 1.595034
22
a1e4f0fd5077c51485d871bf
O -2.761952 -2.344092 1.508507
C -1.432569 -2.083247 1.484961
O -0.689712 -2.763663 2.131542
C -0.979997 -0.932181 0.613117
C -2.044506 -0.151285 -0.197637
C -1.200108 0.681110 -1.097474
C -0.486740 1.631718 -0.496916
C 0.958773 1.406383 -0.620063
C 1.320699 0.183116 -0.043617
C 0.364055 -0.766112 0.608538
C 2.675411 -0.125110 -0.068327
N 3.595803 0.648446 -0.623402
N 3.246115 1.793185 -1.182706
C 1.972924 2.167793 -1.178711
H -3.253205 -1.696781 0.997588
H -2.684339 -0.852271 -0.734974
H -0.764826 0.156518 -1.945856
H -2.665575 0.442491 0.474074
H -0.860386 2.034506 0.442423
H 0.871300 -1.509329 1.214332
H 3.057605 -1.039946 0.365955
H 1.761215 3.118748 -1.651352
30
151f42f5540e42c1bafe54e4
C 0.632688 0.311523 3.235998
C 1.266442 -0.788801 2.386033
B 0.949823 -0.684665 1.027859
C 0.337499 -0.266726 -0.267832
C 0.755693 -0.594238 -1.516917
N 1.733153 -1.496116 -1.753831
C 0.157439 0.033653 -2.705255
C -0.861264 0.977012 -2.501738
N -1.289439 1.260839 -1.291259
C -0.837834 0.658061 -0.031742
C -2.021724 -0.007059 0.663361
C -1.538970 1.736345 -3.607680
B 0.565991 -0.246445 -4.099158
C 2.104218 -1.764962 3.191174
H -0.027964 0.957396 2.660768
H 1.399057 0.937544 3.693096
H 0.044776 -0.124241 4.046168
H 2.218467 -1.931679 -0.993037
H 2.070454 -1.655934 -2.687387
H -2.016985 1.951989 -1.191696
H -0.517984 1.486985 0.606197
H -2.428169 -0.808986 0.048455
H -2.797384 0.730860 0.860445
H -1.708102 -0.429465 1.613823
H -1.138526 1.456338 -4.576606
H -1.397272 2.804524 -3.456105
H -2.607016 1.529764 -3.587445
H 2.116948 -1.445603 4.233707
H 3.136525 -1.809778 2.842064
H 1.699452 -2.778128 3.158541
25
3497522cc00e5cfd7bca4fb4
N 3.906988 1.954006 2.160210
C 3.007133 2.386573 1.594463
C 1.859406 2.892590 0.881720
C 1.182176 2.099169 0.072972
C 0.612752 1.323357 -0.814533
C -0.149460 0.131481 -0.467273
O -0.162743 -0.252895 0.832773
C -0.820804 -1.447870 0.883780
C -1.242125 -1.819596 -0.353025
C -0.806270 -0.775523 -1.231063
C -1.974757 -3.068913 -0.727301
C -0.934205 -2.084876 2.220576
C 0.764317 1.619107 -2.292977
C 1.498435 4.273368 1.086614
N 1.212145 5.377534 1.212044
H -0.963580 -0.722300 -2.293399
H -2.180250 -3.679531 0.149784
H -1.389092 -3.668498 -1.422187
H -2.923939 -2.838937 -1.207367
H -0.313743 -1.548393 2.933655
H -0.601820 -3.120597 2.183991
H -1.960001 -2.073592 2.584947
H 1.509392 2.386687 -2.464477
H -0.190010 1.945494 -2.706817
H 1.060068 0.712162 -2.817120
16
39e2c45440ca87e56cb7fa29
O -1.014588 -2.634654 1.793546
C -1.552462 -1.430617 1.602442
O -2.574103 -1.075324 2.097097
C -0.722871 -0.523958 0.673357
N -1.129161 0.722200 0.455676
C -0.334164 1.398226 -0.334334
N 0.771282 0.987744 -0.924501
C 1.051195 -0.257860 -0.630474
N 0.371810 -1.064771 0.147354
N 2.309724 -0.845101 -1.254917
O 2.942280 -0.118095 -1.973016
O 2.556923 -1.990427 -0.969595
N -0.735048 2.845030 -0.597600
O -1.765243 3.208772 -0.093545
O 0.015946 3.491838 -1.281499
H -0.191523 -2.712999 1.290010
28
90eecab78ed1b35bd990ab41
O 3.330770 2.903872 1.761034
C 3.413864 1.558937 1.821045
O 4.366066 1.004366 2.293595
C 2.264332 0.809637 1.271064
C 1.102421 1.245924 0.766043
C 0.279306 0.097306 0.353499
C -0.867349 0.103768 -0.448325
C -1.231359 1.381181 -1.021114
C -2.167358 1.542756 -1.977763
C -2.891615 0.402210 -2.465832
C -2.668823 -0.803996 -1.925868
C -1.717808 -1.038852 -0.850671
C -1.886896 -2.214570 -0.135804
C -0.871536 -2.363240 0.845817
C 0.385549 -2.188303 0.340337
N 0.999701 -1.017180 0.698412
C 2.311205 -0.685235 1.230577
H 2.508280 3.159099 1.330286
H 0.809387 2.278598 0.670799
H -0.699529 2.252224 -0.676044
H -2.375257 2.519224 -2.385321
H -3.628546 0.538853 -3.246742
H -3.249921 -1.660348 -2.243270
H -2.793298 -2.803685 -0.226813
H -1.086475 -2.104573 1.873415
H 0.790065 -2.766803 -0.476750
H 3.122324 -1.048905 0.598228
H 2.452499 -1.102261 2.226163
22
a49d311aff2713cbe7d857cf
O 1.928443 -1.565235 -0.983191
C 1.360832 -2.685709 -0.521925
O 1.935457 -3.735882 -0.511664
C -0.042404 -2.560774 0.003075
C -1.021272 -1.688218 -0.555504
C -0.939070 -0.664086 -1.455165
C -0.597411 0.529293 -0.738165
C -0.269185 0.171532 0.562007
C -0.569120 -1.230091 0.778149
C 0.171037 1.195853 1.565951
N -0.206354 2.528855 1.090431
C -0.321085 2.832592 -0.237700
C -0.504149 1.898171 -1.188421
H 1.309913 -0.830485 -0.868006
H -0.318259 -3.431509 0.581345
H -0.972513 -0.747064 -2.529442
H -0.967080 -1.553664 1.727926
H 1.254733 1.155195 1.732794
H -0.307140 1.031609 2.534712
H 0.003515 3.288737 1.708415
H -0.303212 3.887120 -0.473734
H -0.625683 2.173759 -2.221885
